opendss_models/34Bus/ieee34-1_Curr_Elem.Txt

CIRCUIT ELEMENT CURRENTS

(Currents into element from indicated bus)

Power Delivery Elements

  Bus     Phase    Magnitude, A     Angle      (Real)   +j  (Imag)

ELEMENT = "Vsource.SOURCE"
SOURCEBUS     1            14.89 /_ -163.1 =    -14.247 +j   -4.3279
SOURCEBUS     2            13.38 /_   81.3 =     2.0167 +j    13.227
SOURCEBUS     3           15.126 /_  -36.0 =     12.231 +j   -8.8992
------------
SOURCEBUS     0            14.89 /_   16.9 =     14.247 +j    4.3279
SOURCEBUS     0            13.38 /_  -98.7 =    -2.0167 +j   -13.227
SOURCEBUS     0           15.126 /_  144.0 =    -12.231 +j    8.8992

ELEMENT = "Transformer.SUBXF"
SOURCEBUS     1            14.89 /_   16.9 =     14.247 +j    4.3279
SOURCEBUS     2            13.38 /_  -98.7 =    -2.0167 +j   -13.227
SOURCEBUS     3           15.126 /_  144.0 =    -12.231 +j    8.8992
SOURCEBUS     0                0 /_    0.0 =          0 +j         0
------------
800           1           44.268 /_  166.0 =    -42.944 +j    10.746
800           2           40.504 /_   51.1 =     25.438 +j     31.52
800           3           35.639 /_  -63.8 =     15.759 +j   -31.966
800           0           10.448 /_  -80.4 =     1.7473 +j     -10.3

ELEMENT = "Line.L1"
800           1           44.268 /_  -14.0 =     42.944 +j   -10.746
800           2           40.504 /_ -128.9 =    -25.438 +j    -31.52
800           3           35.639 /_  116.2 =    -15.759 +j    31.966
------------
802           1           44.284 /_  165.9 =    -42.948 +j    10.795
802           2           40.505 /_   51.0 =     25.474 +j    31.492
802           3           35.645 /_  -63.8 =     15.724 +j   -31.989

ELEMENT = "Line.L2"
802           1           44.284 /_  -14.1 =     42.948 +j   -10.795
802           2           39.447 /_ -128.5 =    -24.545 +j    -30.88
802           3           34.789 /_  116.8 =    -15.712 +j    31.039
------------
806           1           44.294 /_  165.9 =     -42.95 +j    10.828
806           2           39.447 /_   51.5 =      24.57 +j    30.861
806           3           34.792 /_  -63.2 =     15.689 +j   -31.054

ELEMENT = "Line.L3"
806           1           44.294 /_  -14.1 =      42.95 +j   -10.828
806           2           38.391 /_ -128.0 =    -23.639 +j   -30.249
806           3           33.941 /_  117.5 =    -15.678 +j    30.103
------------
808           1           44.482 /_  165.1 =    -42.989 +j    11.427
808           2           38.398 /_   51.1 =     24.088 +j    29.903
808           3           33.993 /_  -63.4 =     15.241 +j   -30.385

ELEMENT = "Line.L4"
808           2          0.59763 /_ -142.2 =   -0.47249 +j  -0.36595
------------
810           2          0.62601 /_   31.9 =    0.53156 +j   0.33065

ELEMENT = "Line.L5"
808           1           44.482 /_  -14.9 =     42.989 +j   -11.427
808           2           37.228 /_ -128.3 =    -23.084 +j   -29.206
808           3           33.993 /_  116.6 =    -15.241 +j    30.385
------------
812           1           44.697 /_  164.3 =    -43.026 +j    12.106
812           2           37.234 /_   50.7 =     23.593 +j    28.805
812           3           34.056 /_  -64.4 =     14.738 +j   -30.701

ELEMENT = "Line.L6"
812           1           44.697 /_  -15.7 =     43.026 +j   -12.106
812           2           37.234 /_ -129.3 =    -23.593 +j   -28.805
812           3           34.056 /_  115.6 =    -14.738 +j    30.701
------------
814           1           44.865 /_  163.6 =     -43.05 +j     12.63
814           2           37.241 /_   49.9 =     23.985 +j    28.489
814           3           34.106 /_  -65.1 =     14.344 +j   -30.943

ELEMENT = "Line.L7"
814R          1           44.864 /_  -16.3 =      43.05 +j   -12.629
814R          2           37.241 /_ -130.1 =    -23.984 +j    -28.49
814R          3           34.106 /_  114.9 =    -14.345 +j    30.943
------------
850           1           44.864 /_  163.7 =     -43.05 +j    12.629
850           2           37.241 /_   49.9 =     23.984 +j     28.49
850           3           34.106 /_  -65.1 =     14.345 +j   -30.943

ELEMENT = "Line.L8"
816           1           13.555 /_  -26.4 =     12.136 +j   -6.0367
------------
818           1           13.563 /_  153.5 =    -12.136 +j    6.0556

ELEMENT = "Line.L9"
816           1            31.61 /_  -12.0 =     30.914 +j   -6.5976
816           2           37.178 /_ -130.1 =    -23.935 +j   -28.448
816           3           34.106 /_  114.9 =    -14.341 +j    30.945
------------
824           1           31.652 /_  167.7 =     -30.92 +j     6.767
824           2           37.181 /_   49.7 =     24.062 +j    28.345
824           3           34.123 /_  -65.4 =     14.211 +j   -31.023

ELEMENT = "Line.L10"
818           1           12.297 /_  -26.3 =     11.021 +j   -5.4553
------------
820           1           12.524 /_  151.5 =    -11.005 +j    5.9787

ELEMENT = "Line.L11"
820           1           5.6223 /_  -27.9 =     4.9703 +j   -2.6279
------------
822           1           5.6885 /_  150.8 =    -4.9657 +j    2.7751

ELEMENT = "Line.L12"
824           2           1.5403 /_ -148.1 =    -1.3071 +j  -0.81484
------------
826           2           1.5554 /_   30.8 =     1.3361 +j   0.79626

ELEMENT = "Line.L13"
824           1           31.652 /_  -12.3 =      30.92 +j    -6.767
824           2           34.193 /_ -128.7 =    -21.366 +j   -26.696
824           3           33.978 /_  114.7 =    -14.207 +j    30.866
------------
828           1           31.656 /_  167.6 =    -30.921 +j    6.7809
828           2           34.193 /_   51.3 =     21.377 +j    26.687
828           3            33.98 /_  -65.3 =     14.197 +j   -30.872

ELEMENT = "Line.L14"
828           1           31.384 /_  -12.3 =     30.668 +j    -6.663
828           2           34.193 /_ -128.7 =    -21.377 +j   -26.687
828           3           33.835 /_  114.8 =    -14.192 +j    30.715
------------
830           1           31.468 /_  167.2 =     -30.68 +j    6.9978
830           2           34.192 /_   50.8 =     21.628 +j    26.482
830           3           33.867 /_  -65.7 =     13.936 +j   -30.867

ELEMENT = "Line.L15"
830           1           30.013 /_  -11.6 =     29.398 +j   -6.0484
830           2           33.483 /_ -128.8 =    -20.985 +j   -26.091
830           3           32.598 /_  114.6 =    -13.553 +j    29.647
------------
854           1           30.015 /_  168.4 =    -29.398 +j    6.0568
854           2           33.483 /_   51.2 =     20.991 +j    26.086
854           3           32.598 /_  -65.4 =     13.546 +j   -29.651

ELEMENT = "Line.L16"
832           1           19.956 /_   -2.4 =     19.939 +j  -0.83636
832           2           23.045 /_ -119.5 =    -11.353 +j   -20.054
832           3           23.185 /_  126.2 =    -13.685 +j    18.715
------------
858           1           19.962 /_  177.4 =    -19.941 +j   0.91351
858           2           23.031 /_   60.3 =     11.411 +j    20.006
858           3           23.177 /_  -54.0 =     13.625 +j   -18.749

ELEMENT = "Line.L17"
834           1           8.7357 /_  -38.8 =     6.8089 +j   -5.4728
834           2           8.8814 /_ -155.3 =    -8.0686 +j   -3.7118
834           3           8.0313 /_   94.6 =   -0.65037 +j    8.0049
------------
860           1           8.7561 /_  141.1 =    -6.8096 +j    5.5045
860           2           8.8944 /_   24.5 =      8.092 +j    3.6919
860           3           8.0431 /_  -85.5 =    0.62578 +j   -8.0188

ELEMENT = "Line.L18"
834           1           13.054 /_   32.9 =     10.956 +j    7.0974
834           2           15.402 /_  -98.5 =    -2.2694 +j   -15.234
834           3           14.049 /_  149.2 =    -12.068 +j    7.1913
------------
842           1           13.052 /_ -147.1 =    -10.956 +j    -7.093
842           2             15.4 /_   81.5 =     2.2726 +j    15.231
842           3           14.047 /_  -30.8 =     12.065 +j   -7.1933

ELEMENT = "Line.L19"
836           1           1.1228 /_  -26.1 =     1.0084 +j  -0.49387
836           2           1.5564 /_ -153.8 =     -1.396 +j  -0.68819
836           3           1.2616 /_   71.9 =    0.39255 +j     1.199
------------
840           1           1.1291 /_  153.3 =    -1.0087 +j   0.50735
840           2           1.5617 /_   25.8 =      1.406 +j   0.67973
840           3           1.2705 /_ -108.5 =   -0.40301 +j   -1.2049

ELEMENT = "Line.L20"
836           1        0.0043881 /_   91.3 =  -9.6095E-005 +j 0.0043871
836           2           2.3004 /_ -149.3 =    -1.9772 +j   -1.1758
836           3        0.0039129 /_ -150.5 =  -0.0034072 +j -0.001924
------------
862           1      3.2539E-011 /_  116.6 =  -1.4552E-011 +j 2.9104E-011
862           2           2.3017 /_   30.6 =     1.9804 +j     1.173
862           3      1.0914E-011 /_  180.0 =  -1.0914E-011 +j         0

ELEMENT = "Line.L21"
842           1           12.886 /_   34.5 =     10.618 +j    7.3009
842           2             15.4 /_  -98.5 =    -2.2726 +j   -15.231
842           3           14.047 /_  149.2 =    -12.065 +j    7.1933
------------
844           1           12.874 /_ -145.6 =    -10.618 +j   -7.2797
844           2           15.389 /_   81.4 =     2.2883 +j    15.218
844           3           14.037 /_  -30.9 =     12.049 +j   -7.2025

ELEMENT = "Line.L22"
844           1           8.3739 /_   77.3 =      1.843 +j    8.1686
844           2           8.4836 /_  -63.4 =     3.7939 +j    -7.588
844           3           8.5845 /_ -168.6 =    -8.4148 +j   -1.6985
------------
846           1           8.3185 /_ -102.8 =    -1.8442 +j   -8.1115
846           2           8.4328 /_  116.4 =    -3.7517 +j    7.5522
846           3           8.5361 /_   11.3 =     8.3705 +j    1.6735

ELEMENT = "Line.L23"
846           1           8.3185 /_   77.2 =     1.8442 +j    8.1115
846           2           8.5291 /_  -50.2 =     5.4574 +j   -6.5546
846           3           8.7722 /_ -163.3 =    -8.4039 +j   -2.5152
------------
848           1           8.3104 /_ -102.8 =    -1.8444 +j   -8.1032
848           2           8.5211 /_  129.8 =    -5.4512 +j    6.5494
848           3            8.765 /_   16.7 =     8.3975 +j    2.5115

ELEMENT = "Line.L24"
850           1           44.864 /_  -16.3 =      43.05 +j   -12.629
850           2           37.241 /_ -130.1 =    -23.984 +j    -28.49
850           3           34.106 /_  114.9 =    -14.345 +j    30.943
------------
816           1           44.866 /_  163.6 =     -43.05 +j    12.634
816           2           37.241 /_   49.9 =     23.988 +j    28.486
816           3           34.106 /_  -65.1 =     14.341 +j   -30.945

ELEMENT = "Line.L25"
852R          1           30.156 /_  -12.7 =     29.415 +j   -6.6449
852R          2           33.208 /_ -130.1 =    -21.371 +j   -25.417
852R          3           32.653 /_  113.6 =    -13.093 +j    29.913
------------
832           1           30.156 /_  167.3 =    -29.415 +j     6.645
832           2           33.208 /_   49.9 =     21.371 +j    25.417
832           3           32.653 /_  -66.4 =     13.093 +j   -29.913

ELEMENT = "Transformer.XFM1"
832           1           11.035 /_  -31.6 =     9.4037 +j   -5.7742
832           2           11.338 /_ -151.8 =    -9.9966 +j   -5.3503
832           3            11.14 /_   87.0 =    0.59267 +j    11.124
832           0       0.00040824 /_   48.4 =  0.00027109 +j 0.00030524
------------
888           1           66.051 /_  148.4 =    -56.286 +j    34.562
888           2           67.867 /_   28.2 =     59.835 +j    32.025
888           3           66.679 /_  -93.0 =    -3.5474 +j   -66.585
888           0        0.0024436 /_ -131.6 =  -0.0016226 +j -0.001827

ELEMENT = "Line.L26"
854           2          0.23712 /_  -70.2 =   0.080134 +j  -0.22317
------------
856           2           0.1602 /_   30.4 =    0.13823 +j  0.080972

ELEMENT = "Line.L27"
854           1           30.015 /_  -11.6 =     29.398 +j   -6.0568
854           2            33.21 /_ -129.1 =    -20.933 +j   -25.782
854           3           32.598 /_  114.6 =    -13.546 +j    29.651
------------
852           1           30.156 /_  167.3 =    -29.415 +j    6.6461
852           2           33.208 /_   49.9 =     21.372 +j    25.416
852           3           32.653 /_  -66.4 =     13.092 +j   -29.914

ELEMENT = "Line.L28"
858           1         0.079969 /_  -18.1 =   0.076006 +j -0.024864
------------
864           1         0.086069 /_  151.0 =  -0.075299 +j  0.041687

ELEMENT = "Line.L29"
858           1           19.476 /_   -1.6 =     19.469 +j  -0.52993
858           2           22.598 /_ -119.4 =    -11.103 +j   -19.683
858           3           22.664 /_  127.1 =    -13.663 +j    18.082
------------
834           1           19.481 /_  178.2 =    -19.471 +j   0.62148
834           2           22.582 /_   60.4 =      11.17 +j    19.626
834           3           22.653 /_  -53.1 =     13.592 +j   -18.122

ELEMENT = "Line.L30"
860           1           2.9591 /_  -27.0 =     2.6373 +j    -1.342
860           2           5.4871 /_ -152.4 =    -4.8638 +j     -2.54
860           3            2.734 /_   84.8 =    0.24833 +j    2.7227
------------
836           1           2.9792 /_  152.3 =    -2.6382 +j     1.384
836           2           5.5025 /_   27.2 =     4.8949 +j    2.5136
836           3           2.7555 /_  -95.9 =   -0.28095 +j   -2.7412

ELEMENT = "Line.L31"
862           2           1.1397 /_ -148.1 =   -0.96789 +j  -0.60167
------------
838           2           1.1628 /_   29.4 =     1.0127 +j   0.57144

ELEMENT = "Line.L32"
888           1           66.051 /_  -31.6 =     56.286 +j   -34.562
888           2           67.867 /_ -151.8 =    -59.835 +j   -32.025
888           3           66.679 /_   87.0 =     3.5474 +j    66.585
------------
890           1           66.064 /_  148.4 =    -56.286 +j    34.589
890           2           67.875 /_   28.1 =     59.855 +j    32.007
890           3           66.691 /_  -93.1 =    -3.5684 +j   -66.596

ELEMENT = "Capacitor.C844"
844           1           6.2651 /_   87.5 =    0.27251 +j    6.2592
844           2           6.5176 /_  -34.0 =     5.4016 +j   -3.6471
844           3            6.554 /_ -153.4 =     -5.861 +j    -2.933
------------
844           0           6.2651 /_  -92.5 =   -0.27251 +j   -6.2592
844           0           6.5176 /_  146.0 =    -5.4016 +j    3.6471
844           0            6.554 /_   26.6 =      5.861 +j     2.933

ELEMENT = "Capacitor.C848"
848           1           9.3998 /_   87.5 =    0.41676 +j    9.3905
848           2           9.7755 /_  -34.1 =     8.0965 +j   -5.4778
848           3           9.8338 /_ -153.5 =    -8.7985 +j   -4.3921
------------
848           0           9.3998 /_  -92.5 =   -0.41676 +j   -9.3905
848           0           9.7755 /_  145.9 =    -8.0965 +j    5.4778
848           0           9.8338 /_   26.5 =     8.7985 +j    4.3921

ELEMENT = "Transformer.REG1A"
814           1           44.865 /_  -16.4 =      43.05 +j    -12.63
814           0           44.865 /_  163.6 =     -43.05 +j     12.63
------------
814R          1           44.864 /_  163.7 =     -43.05 +j    12.629
814R          0           44.865 /_  -16.4 =      43.05 +j    -12.63

ELEMENT = "Transformer.REG1B"
814           2           37.241 /_ -130.1 =    -23.985 +j   -28.489
814           0           37.241 /_   49.9 =     23.985 +j    28.489
------------
814R          2           37.241 /_   49.9 =     23.984 +j     28.49
814R          0           37.241 /_ -130.1 =    -23.985 +j   -28.489

ELEMENT = "Transformer.REG1C"
814           3           34.106 /_  114.9 =    -14.344 +j    30.943
814           0           34.106 /_  -65.1 =     14.344 +j   -30.943
------------
814R          3           34.106 /_  -65.1 =     14.345 +j   -30.943
814R          0           34.106 /_  114.9 =    -14.344 +j    30.943

ELEMENT = "Transformer.REG2A"
852           1           30.156 /_  -12.7 =     29.415 +j   -6.6461
852           0           30.156 /_  167.3 =    -29.415 +j    6.6455
------------
852R          1           30.156 /_  167.3 =    -29.415 +j    6.6449
852R          0           30.156 /_  -12.7 =     29.415 +j   -6.6455

ELEMENT = "Transformer.REG2B"
852           2           33.208 /_ -130.1 =    -21.372 +j   -25.416
852           0           33.208 /_   49.9 =     21.372 +j    25.417
------------
852R          2           33.208 /_   49.9 =     21.371 +j    25.417
852R          0           33.208 /_ -130.1 =    -21.372 +j   -25.417

ELEMENT = "Transformer.REG2C"
852           3           32.653 /_  113.6 =    -13.092 +j    29.914
852           0           32.653 /_  -66.4 =     13.092 +j   -29.914
------------
852R          3           32.653 /_  -66.4 =     13.093 +j   -29.913
852R          0           32.653 /_  113.6 =    -13.092 +j    29.914

= = = = = = = = = = = = = = = = = = =  = = = = = = = = = = =  = =

Power Conversion Elements

  Bus     Phase    Magnitude, A     Angle      (Real)   +j  (Imag)

ELEMENT = "Load.S860"
860           1           1.9785 /_  -41.1 =     1.4905 +j   -1.3011
860           2           1.9016 /_ -162.7 =    -1.8151 +j  -0.56686
860           3           1.8911 /_   78.0 =    0.39467 +j    1.8495
860           0         0.072469 /_  165.3 =  -0.070083 +j  0.018443

ELEMENT = "Load.S840"
840           1          0.79311 /_  -40.3 =    0.60461 +j  -0.51329
840           2          0.79311 /_ -161.9 =   -0.75375 +j  -0.24676
840           3          0.79311 /_   78.7 =    0.15487 +j   0.77784
840           0         0.018699 /_ -107.9 =  -0.0057346 +j -0.017797

ELEMENT = "Load.S844"
844           1           10.715 /_  -40.4 =     8.1639 +j   -6.9401
844           2           11.147 /_ -161.9 =    -10.595 +j   -3.4627
844           3           11.209 /_   78.7 =     2.1946 +j    10.992
844           0          0.63508 /_  -68.1 =    0.23689 +j  -0.58924

ELEMENT = "Load.S848"
848           1           1.9224 /_  -42.0 =     1.4277 +j   -1.2874
848           2           1.9224 /_ -162.0 =    -1.8286 +j  -0.59318
848           3           1.9228 /_   78.0 =    0.40098 +j    1.8805

ELEMENT = "Load.S830A"
830           1          0.43006 /_    1.5 =    0.42991 +j  0.011592
830           2          0.43006 /_ -178.5 =   -0.42991 +j -0.011592

ELEMENT = "Load.S830B"
830           2          0.43523 /_ -119.2 =   -0.21247 +j  -0.37985
830           3          0.43523 /_   60.8 =    0.21247 +j   0.37985

ELEMENT = "Load.S830C"
830           3           1.0299 /_  125.3 =    -0.5955 +j   0.84032
830           1           1.0299 /_  -54.7 =     0.5955 +j  -0.84032

ELEMENT = "Load.S890"
890           1           66.065 /_  -31.6 =     56.286 +j   -34.589
890           2           67.875 /_ -151.9 =    -59.855 +j   -32.007
890           3           66.691 /_   86.9 =     3.5684 +j    66.596

ELEMENT = "Load.D802_806SB"
802           2           1.1126 /_ -146.6 =   -0.92913 +j  -0.61203
802           0           1.1126 /_   33.4 =    0.92913 +j   0.61203

ELEMENT = "Load.D802_806RB"
806           2           1.1136 /_ -146.7 =   -0.93041 +j  -0.61193
806           0           1.1136 /_   33.3 =    0.93041 +j   0.61193

ELEMENT = "Load.D802_806SC"
802           3          0.95032 /_   90.7 =  -0.011717 +j   0.95025
802           0          0.95032 /_  -89.3 =   0.011717 +j  -0.95025

ELEMENT = "Load.D802_806RC"
806           3          0.95111 /_   90.7 =  -0.011251 +j   0.95105
806           0          0.95111 /_  -89.3 =   0.011251 +j  -0.95105

ELEMENT = "Load.D808_810SB"
808           2          0.62603 /_ -148.1 =    -0.5316 +j  -0.33064
808           0          0.62603 /_   31.9 =     0.5316 +j   0.33064

ELEMENT = "Load.D808_810RB"
810           2          0.62601 /_ -148.1 =   -0.53156 +j  -0.33065
810           0          0.62601 /_   31.9 =    0.53156 +j   0.33065

ELEMENT = "Load.D818_820SA"
818           1           1.2665 /_  -28.3 =     1.1152 +j  -0.60026
818           0           1.2665 /_  151.7 =    -1.1152 +j   0.60026

ELEMENT = "Load.D818_820RA"
820           1           1.2335 /_  -28.4 =     1.0856 +j  -0.58577
820           0           1.2335 /_  151.6 =    -1.0856 +j   0.58577

ELEMENT = "Load.D820_822SA"
820           1           5.6689 /_  -29.2 =     4.9488 +j   -2.7651
820           0           5.6689 /_  150.8 =    -4.9488 +j    2.7651

ELEMENT = "Load.D820_822RA"
822           1           5.6886 /_  -29.2 =     4.9658 +j   -2.7751
822           0           5.6886 /_  150.8 =    -4.9658 +j    2.7751

ELEMENT = "Load.D816_824SB"
816           2         0.065758 /_ -144.2 =  -0.053358 +j -0.038432
816           0         0.065758 /_   35.8 =   0.053358 +j  0.038432

ELEMENT = "Load.D816_824RB"
824           2         0.064956 /_ -144.4 =  -0.052844 +j -0.037772
824           0         0.064956 /_   35.6 =   0.052844 +j  0.037772

ELEMENT = "Load.D824_826SB"
824           2           1.5554 /_ -149.2 =    -1.3361 +j  -0.79627
824           0           1.5554 /_   30.8 =     1.3361 +j   0.79627

ELEMENT = "Load.D824_826RB"
826           2           1.5554 /_ -149.2 =    -1.3361 +j  -0.79627
826           0           1.5554 /_   30.8 =     1.3361 +j   0.79627

ELEMENT = "Load.D824_828SC"
824           3          0.15708 /_   91.5 =  -0.0041916 +j   0.15703
824           0          0.15708 /_  -88.5 =  0.0041916 +j  -0.15703

ELEMENT = "Load.D824_828RC"
828           3          0.15719 /_   91.5 =  -0.0041467 +j   0.15713
828           0          0.15719 /_  -88.5 =  0.0041467 +j  -0.15713

ELEMENT = "Load.D828_830SA"
828           1           0.2788 /_  -25.0 =    0.25266 +j  -0.11786
828           0           0.2788 /_  155.0 =   -0.25266 +j   0.11786

ELEMENT = "Load.D828_830RA"
830           1           0.2836 /_  -25.2 =    0.25663 +j  -0.12073
830           0           0.2836 /_  154.8 =   -0.25663 +j   0.12073

ELEMENT = "Load.D854_856SB"
854           2          0.16019 /_ -149.6 =   -0.13821 +j -0.080981
854           0          0.16019 /_   30.4 =    0.13821 +j  0.080981

ELEMENT = "Load.D854_856RB"
856           2           0.1602 /_ -149.6 =   -0.13823 +j -0.080972
856           0           0.1602 /_   30.4 =    0.13823 +j  0.080972

ELEMENT = "Load.D832_858SA"
832           1         0.079983 /_  -25.6 =    0.07216 +j -0.034499
832           0         0.079983 /_  154.4 =   -0.07216 +j  0.034499

ELEMENT = "Load.D832_858RA"
858           1          0.07978 /_  -25.6 =   0.071946 +j -0.034476
858           0          0.07978 /_  154.4 =  -0.071946 +j  0.034476

ELEMENT = "Load.D832_858SB"
832           2         0.024437 /_ -150.4 =  -0.021239 +j -0.012087
832           0         0.024437 /_   29.6 =   0.021239 +j  0.012087

ELEMENT = "Load.D832_858RB"
858           2         0.024374 /_ -150.4 =  -0.021204 +j -0.012021
858           0         0.024374 /_   29.6 =   0.021204 +j  0.012021

ELEMENT = "Load.D832_858SC"
832           3         0.073654 /_   90.3 =  -0.00037275 +j  0.073653
832           0         0.073654 /_  -89.7 =  0.00037275 +j -0.073653

ELEMENT = "Load.D832_858RC"
858           3         0.073487 /_   90.2 =  -0.00023277 +j  0.073486
858           0         0.073487 /_  -89.8 =  0.00023277 +j -0.073486

ELEMENT = "Load.D858_864SB"
858           1         0.086069 /_  -29.0 =     0.0753 +j -0.041688
858           0         0.086069 /_  151.0 =    -0.0753 +j  0.041688

ELEMENT = "Load.D858_864RB"
864           1          0.08607 /_  -29.0 =     0.0753 +j -0.041688
864           0          0.08607 /_  151.0 =    -0.0753 +j  0.041688

ELEMENT = "Load.D858_834SA"
858           1          0.09669 /_    0.9 =   0.096677 +j 0.0015663
858           2          0.09669 /_ -179.1 =  -0.096677 +j -0.0015663

ELEMENT = "Load.D858_834RA"
834           1         0.096956 /_    0.8 =   0.096945 +j 0.0014199
834           2         0.096956 /_ -179.2 =  -0.096945 +j -0.0014199

ELEMENT = "Load.D858_834SB"
858           2          0.36332 /_ -121.6 =   -0.19015 +j  -0.30959
858           3          0.36332 /_   58.4 =    0.19015 +j   0.30959

ELEMENT = "Load.D858_834RB"
834           2          0.36432 /_ -121.7 =   -0.19129 +j  -0.31006
834           3          0.36432 /_   58.3 =    0.19129 +j   0.31006

ELEMENT = "Load.D858_834SC"
858           3          0.32214 /_  118.1 =   -0.15182 +j   0.28412
858           1          0.32214 /_  -61.9 =    0.15182 +j  -0.28412

ELEMENT = "Load.D858_834RC"
834           3          0.32314 /_  118.0 =   -0.15178 +j   0.28528
834           1          0.32314 /_  -62.0 =    0.15178 +j  -0.28528

ELEMENT = "Load.D834_860SA"
834           1           0.3327 /_    0.8 =    0.33267 +j 0.0048723
834           2           0.3327 /_ -179.2 =   -0.33267 +j -0.0048723

ELEMENT = "Load.D834_860RA"
860           1          0.33255 /_    0.8 =    0.33252 +j 0.0048948
860           2          0.33255 /_ -179.2 =   -0.33252 +j -0.0048948

ELEMENT = "Load.D834_860SB"
834           2          0.42072 /_ -120.2 =   -0.21141 +j  -0.36375
834           3          0.42072 /_   59.8 =    0.21141 +j   0.36375

ELEMENT = "Load.D834_860RB"
860           2          0.42054 /_ -120.2 =   -0.21132 +j   -0.3636
860           3          0.42054 /_   59.8 =    0.21132 +j    0.3636

ELEMENT = "Load.D834_860SC"
834           3           2.2658 /_  119.8 =    -1.1244 +j    1.9671
834           1           2.2658 /_  -60.2 =     1.1244 +j   -1.9671

ELEMENT = "Load.D834_860RC"
860           3           2.2647 /_  119.8 =    -1.1238 +j    1.9661
860           1           2.2647 /_  -60.2 =     1.1238 +j   -1.9661

ELEMENT = "Load.D860_836SA"
860           1          0.72749 /_    0.8 =    0.72741 +j  0.010708
860           2          0.72749 /_ -179.2 =   -0.72741 +j -0.010708

ELEMENT = "Load.D860_836RA"
836           1          0.72772 /_    0.8 =    0.72764 +j  0.010686
836           2          0.72772 /_ -179.2 =   -0.72764 +j -0.010686

ELEMENT = "Load.D860_836SB"
860           2          0.25003 /_ -124.6 =   -0.14184 +j   -0.2059
860           3          0.25003 /_   55.4 =    0.14184 +j    0.2059

ELEMENT = "Load.D860_836RB"
836           2           0.2501 /_ -124.6 =   -0.14187 +j  -0.20597
836           3           0.2501 /_   55.4 =    0.14187 +j   0.20597

ELEMENT = "Load.D860_836SC"
860           3           1.0382 /_  118.7 =   -0.49811 +j   0.91091
860           1           1.0382 /_  -61.3 =    0.49811 +j  -0.91091

ELEMENT = "Load.D860_836RC"
836           3           1.0384 /_  118.7 =   -0.49823 +j    0.9111
836           1           1.0384 /_  -61.3 =    0.49823 +j   -0.9111

ELEMENT = "Load.D836_840SA"
836           1          0.40411 /_    0.8 =    0.40407 +j 0.0059339
836           2          0.40411 /_ -179.2 =   -0.40407 +j -0.0059339

ELEMENT = "Load.D836_840RA"
840           1          0.40411 /_    0.8 =    0.40407 +j 0.0059334
840           2          0.40411 /_ -179.2 =   -0.40407 +j -0.0059334

ELEMENT = "Load.D836_840SB"
836           2          0.49391 /_ -120.2 =   -0.24815 +j  -0.42705
836           3          0.49391 /_   59.8 =    0.24815 +j   0.42705

ELEMENT = "Load.D836_840RB"
840           2          0.49391 /_ -120.2 =   -0.24815 +j  -0.42705
840           3          0.49391 /_   59.8 =    0.24815 +j   0.42705

ELEMENT = "Load.D862_838SB"
862           2           1.1626 /_ -150.6 =    -1.0125 +j  -0.57137
862           0           1.1626 /_   29.4 =     1.0125 +j   0.57137

ELEMENT = "Load.D862_838RB"
838           2           1.1628 /_ -150.6 =    -1.0127 +j  -0.57144
838           0           1.1628 /_   29.4 =     1.0127 +j   0.57144

ELEMENT = "Load.D842_844SA"
842           1          0.39748 /_  -31.5 =    0.33881 +j  -0.20783
842           0          0.39748 /_  148.5 =   -0.33881 +j   0.20783

ELEMENT = "Load.D842_844RA"
844           1          0.39757 /_  -31.5 =    0.33881 +j  -0.20801
844           0          0.39757 /_  148.5 =   -0.33881 +j   0.20801

ELEMENT = "Load.D844_846SB"
844           2           1.0294 /_ -149.7 =   -0.88845 +j  -0.51984
844           0           1.0294 /_   30.3 =    0.88845 +j   0.51984

ELEMENT = "Load.D844_846RB"
846           2           1.0295 /_ -149.7 =   -0.88898 +j  -0.51916
846           0           1.0295 /_   30.3 =    0.88898 +j   0.51916

ELEMENT = "Load.D844_846SC"
844           3          0.84257 /_   87.8 =   0.032734 +j   0.84194
844           0          0.84257 /_  -92.2 =  -0.032734 +j  -0.84194

ELEMENT = "Load.D844_846RC"
846           3          0.84236 /_   87.7 =   0.033457 +j    0.8417
846           0          0.84236 /_  -92.3 =  -0.033457 +j   -0.8417

ELEMENT = "Load.D846_848SB"
846           2          0.94648 /_ -149.6 =   -0.81663 +j  -0.47846
846           0          0.94648 /_   30.4 =    0.81663 +j   0.47846

ELEMENT = "Load.D846_848RB"
848           2          0.94646 /_ -149.6 =   -0.81667 +j  -0.47836
848           0          0.94646 /_   30.4 =    0.81667 +j   0.47836

